test/test_files/validation_tests/case3375wp_resqlim.m
function mpc = case3375wp_resqlim
%CASE3375WP_RESQLIM

%% MATPOWER Case Format : Version 2
mpc.version = '2';

%%-----  Power Flow Data  -----%%
%% system MVA base
mpc.baseMVA = 100;

%% bus data
%	bus_i	type	Pd	Qd	Gs	Bs	area	Vm	Va	baseKV	zone	Vmax	Vmin
mpc.bus = [
	10000	1	0	0	0	0	0	1.04686467	-10.4503073	400	0	1.05	0.95;
	10001	1	0	0	0	0	0	1.04831204	-14.5242166	400	0	1.05	0.95;
	10002	1	0	0	0	0	0	1.07249559	-16.444835	220	0	1.11	0.95;
	10003	1	0	0	0	0	0	1.04519541	-17.4268329	400	0	1.05	0.95;
	10004	1	0	0	0	0	0	1.04393896	-13.5548676	400	0	1.05	0.95;
	10005	1	0	0	0	0	0	1.04431584	-15.9887306	400	0	1.05	0.95;
	10006	1	0	0	0	0	0	1.04069793	-9.33129677	400	0	1.05	0.95;
	10007	1	0	0	0	0	0	1.07321163	-15.3788324	220	0	1.11	0.95;
	10008	1	0	0	0	0	0	1.07070554	-17.5676125	220	0	1.11	0.95;
	10009	1	0	0	0	0	0	1.0443228	-16.772595	400	0	1.05	0.95;
	10010	1	0	0	0	0	0	1.04909529	-11.5761766	400	0	1.05	0.95;
	10011	1	0	0	0	0	0	1.0446792	-18.1067653	400	0	1.05	0.95;
	10012	1	0	0	0	0	0	1.0446792	-18.1067653	400	0	1.05	0.95;
	10013	1	0	0	0	0	0	1.04557967	-11.7819739	400	0	1.05	0.95;
	10014	1	0	0	0	0	0	1.04578165	-11.8134731	400	0	1.05	0.95;
	10015	1	0	0	0	0	0	1.04471832	-17.7113422	400	0	1.05	0.95;
	10016	1	0	0	0	0	0	1.04576648	-11.7009935	400	0	1.05	0.95;
	10017	1	0	0	0	0	0	1.04570156	-11.7050589	400	0	1.05	0.95;
	10018	1	0	0	0	0	0	1.04568296	-11.6978119	400	0	1.05	0.95;
	10019	1	0	0	0	0	0	1.045787	-11.8135047	400	0	1.05	0.95;
	10020	1	0	0	0	0	0	1.04995336	-13.5538129	400	0	1.05	0.95;
	10021	1	0	0	0	0	0	1.07628622	-16.1078713	220	0	1.11	0.95;
	10022	1	0	0	0	0	0	1.07480395	-16.520328	220	0	1.11	0.95;
	10023	1	0	0	0	0	0	1.04573425	-11.2071765	400	0	1.05	0.95;
	10024	1	0	0	0	0	0	1.04548215	-11.3066301	400	0	1.05	0.95;
	10025	1	0	0	0	0	0	1.04564237	-11.2537635	400	0	1.05	0.95;
	10026	1	0	0	0	0	0	1.04126659	-7.45026843	400	0	1.05	0.95;
	10027	1	0	0	0	0	0	1.04166659	-7.17738488	400	0	1.05	0.95;
	10028	1	0	0	0	0	0	1.04177789	-6.97992756	400	0	1.05	0.95;
	10029	1	0	0	0	0	0	1.04910013	-11.028346	400	0	1.05	0.95;
	10030	1	0	0	0	0	0	1.04909081	-11.0231493	400	0	1.05	0.95;
	10031	1	0	0	0	0	0	1.08680537	-11.0533224	220	0	1.11	0.95;
	10032	1	0	0	0	0	0	1.0413142	-7.46577494	400	0	1.05	0.95;
	10033	1	0	0	0	0	0	1.04130079	-7.46567407	400	0	1.05	0.95;
	10034	1	0	0	0	0	0	1.04252919	-13.6830089	400	0	1.05	0.95;
	10035	1	0	0	0	0	0	1.07250126	-11.8197277	220	0	1.11	0.95;
	10036	1	0	0	0	0	0	1.07256322	-11.8274268	220	0	1.11	0.95;
	10037	1	0	0	0	0	0	1.04129814	-7.56374141	400	0	1.05	0.95;
	10038	1	0	0	0	0	0	1.04134377	-7.57185063	400	0	1.05	0.95;
	10039	1	0	0	0	0	0	1.04177125	-7.60952694	400	0	1.05	0.95;
	10040	1	0	0	0	0	0	1.04506167	-12.6568825	400	0	1.05	0.95;
	10041	1	0	0	0	0	0	1.04915527	-11.1619133	400	0	1.05	0.95;
	10042	1	0	0	0	0	0	1.04489219	-18.3736694	400	0	1.05	0.95;
	10043	1	0	0	0	0	0	1.06595556	-13.9079068	220	0	1.11	0.95;
	10044	1	0	0	0	0	0	1.07304594	-13.072156	220	0	1.11	0.95;
	10045	1	0	0	0	0	0	1.0673808	-18.4289669	220	0	1.11	0.95;
	10046	1	0	0	0	0	0	1.07476348	-16.5198368	220	0	1.11	0.95;
	10047	1	0	0	0	0	0	1.04345333	-19.252155	400	0	1.05	0.95;
	10048	1	0	0	0	0	0	1.04593165	-10.9452297	400	0	1.05	0.95;
	10049	1	0	0	0	0	0	1.04881094	-11.4469976	400	0	1.05	0.95;
	10050	1	0	0	0	0	0	1.04915527	-11.1619133	400	0	1.05	0.95;
	10051	1	0	0	0	0	0	1.06434644	-18.1784829	220	0	1.11	0.95;
	10052	1	0	0	0	0	0	1.04278668	-16.0154038	400	0	1.05	0.95;
	10053	1	0	0	0	0	0	1.08849344	-10.4946499	220	0	1.11	0.95;
	10054	1	0	0	0	0	0	1.08849344	-10.4946499	220	0	1.11	0.95;
	10055	1	0	0	0	0	0	1.0802234	-14.4143245	220	0	1.11	0.95;
	10056	1	0	0	0	0	0	1.04167351	-9.58585227	400	0	1.05	0.95;
	10057	1	0	0	0	0	0	1.03958119	-8.55841117	400	0	1.05	0.95;
	10058	1	0	0	0	0	0	1.05990736	-16.368429	220	0	1.11	0.95;
	10059	1	0	0	0	0	0	1.0500618	-15.4466409	400	0	1.05	0.95;
	10060	1	0	0	0	0	0	1.04132096	-7.56779611	400	0	1.05	0.95;
	10061	1	0	0	0	0	0	1.04167351	-9.58585227	400	0	1.05	0.95;
	10062	1	0	0	0	0	0	1.0429548	-15.2417831	400	0	1.05	0.95;
	10063	1	0	0	0	0	0	1.04577856	-11.8134607	400	0	1.05	0.95;
	10064	1	0	0	0	0	0	1.06573623	-15.8937354	220	0	1.11	0.95;
	10065	1	0	0	0	0	0	1.04672215	-13.1326325	400	0	1.05	0.95;
	10066	1	0	0	0	0	0	1.04877726	-11.8437208	400	0	1.05	0.95;
	10067	1	0	0	0	0	0	1.06756125	-14.9981849	220	0	1.11	0.95;
	10068	1	0	0	0	0	0	1.04901697	-12.7353174	400	0	1.05	0.95;
	10069	1	0	0	0	0	0	1.06641244	-18.753813	220	0	1.11	0.95;
	10070	1	0	0	0	0	0	1.04463345	-18.1065159	400	0	1.05	0.95;
	10071	2	16	8	0	0	0	1.07617	-14.7594223	220	0	1.11	0.95;
	10072	1	0	0	0	0	0	1.08594941	-11.2289742	220	0	1.11	0.95;
	10073	1	0	0	0	0	1	1.07467423	-12.8181254	220	0	1.11	0.95;
	10074	1	0	0	0	0	0	1.07381742	-12.7939762	220	0	1.11	0.95;
	10075	1	0	0	0	0	0	1.07253658	-13.62627	220	0	1.11	0.95;
	10076	1	0	0	0	0	0	1.04547092	-11.3065677	400	0	1.05	0.95;
	10077	1	0	0	0	0	0	1.04547092	-11.3065677	400	0	1.05	0.95;
	10078	1	305.5	-14	0	0	0	1.03443612	-7.6112979	400	0	1.05	0.95;
	10079	2	-1529.6	4542.9	0	0	0	1.01319	0.630801925	400	0	1.05	0.95;
	10080	2	-159.1	-181	0	0	0	1.02855	-4.07271917	400	0	1.05	0.95;
	10081	1	-1078.3	-374.1	0	0	0	1.03449513	-0.189877861	400	0	1.05	0.95;
	10082	1	943.2	310.2	0	0	0	1.00366159	-3.76639263	400	0	1.05	0.95;
	10083	1	97	26	0	0	0	1.04141342	-4.5082664	400	0	1.05	0.95;
	10084	1	0.6	160	0	0	0	1.04228039	-4.31276777	400	0	1.05	0.95;
	10085	1	161.6	183.6	0	0	0	1.04124315	-4.46280227	400	0	1.05	0.95;
	10086	1	288.6	221.6	0	0	0	1.04123175	-4.46545356	400	0	1.05	0.95;
	10087	1	0	0	0	0	0	1.04329387	-4.19203098	400	0	1.05	0.95;
	10088	1	0	0	0	0	0	1.08924066	-4.62354086	220	0	1.11	0.95;
	10089	1	0	0	0	0	0	1.0869989	-4.74826335	220	0	1.11	0.95;
	10090	2	274.4	279.6	0	0	0	1.04139	-4.51229572	400	0	1.05	0.95;
	10091	1	94.2	111.8	0	0	0	1.04083012	-4.56813171	400	0	1.05	0.95;
	10092	1	0	0	0	0	0	1.08536631	-4.83742546	220	0	1.11	0.95;
	10093	1	0	0	0	0	0	1.08802199	-4.69266739	220	0	1.11	0.95;
	10094	2	0	0	0	0	0	1.03526	-3.81880731	400	0	1.05	0.95;
	10095	2	4.4	-2590.1	0	0	0	1.02969	-5.19985458	400	0	1.05	0.95;
	10096	1	488	79.1	0	0	0	1.02127166	-5.41322692	400	0	1.05	0.95;
	10097	1	601	147.9	0	0	0	1.02468224	-5.32102925	400	0	1.05	0.95;
	10098	1	527	265.1	0	0	0	1.02591623	-4.60362953	400	0	1.05	0.95;
	10099	1	0	0	0	0	0	1.00481215	-1.73961206	400	0	1.05	0.95;
	10100	2	0	0	0	0	0	1.04073	-0.189369862	400	0	1.05	0.95;
	10101	1	0	0	0	0	0	1.04148082	-16.2157246	220	0	1.11	0.95;
	10102	1	120	25	0	0	0	1.0628311	-9.02265793	220	0	1.11	0.95;
	10103	1	0	0	0	0	0	1.03973346	-2.56651965	400	0	1.05	0.95;
	10104	2	200.2	48.7	0	0	0	1.04409	-1.45090195	400	0	1.05	0.95;
	10105	1	0	0	0	0	0	1.06456069	-7.16306481	220	0	1.11	0.95;
	10106	1	0	0	0	0	0	1.03439118	-3.86248255	400	0	1.05	0.95;
	10107	1	0	0	0	0	0	1.04250222	-2.19397994	400	0	1.05	0.95;
	10108	1	0	0	0	0	0	1.04309316	-1.87768712	400	0	1.05	0.95;
	10109	1	0	0	0	0	0	1.04246211	-2.11743115	400	0	1.05	0.95;
	10110	1	0	0	0	0	0	1.04307783	-1.796497	400	0	1.05	0.95;
	10111	1	0	0	0	0	0	1.02626479	-1.09730195	400	0	1.05	0.95;
	10112	1	0	0	0	0	0	1.10808786	-4.33065466	220	0	1.11	0.95;
	10113	1	0	0	0	0	0	1.01803983	-1.81445059	400	0	1.05	0.95;
	10114	1	0	0	0	0	0	1.09057751	-6.28023033	220	0	1.11	0.95;
	10115	2	0	0	0	0	0	1.00234	-1.51878094	400	0	1.05	0.95;
	10116	2	0	0	0	0	0	1.00234	-1.51878094	400	0	1.05	0.95;
	10117	1	0	0	0	0	0	1.0321485	-4.51424893	400	0	1.05	0.95;
	10118	2	0	0	0	0	0	1.04097	0.179384528	400	0	1.05	0.95;
	10119	1	0	0	0	0	0	1.01217367	-2.60256347	400	0	1.05	0.95;
	10120	1	0	0	0	0	0	1.0397921	-3.05723582	400	0	1.05	0.95;
	10121	1	80	20	0	0	0	1.05964069	-8.78945502	220	0	1.11	0.95;
	10122	1	0	0	0	0	0	1.05016455	-9.12172113	220	0	1.11	0.95;
	10123	1	0	0	0	0	0	1.04890453	-3.22411846	400	0	1.05	0.95;
	10124	1	0	0	0	0	0	1.05013563	0.169728846	400	0	1.05	0.95;
	10125	1	0	0	0	0	0	1.01317037	-3.63631871	400	0	1.05	0.95;
	10126	2	0	0	0	0	0	1.00802	-2.80430673	400	0	1.05	0.95;
	10127	1	0	0	0	0	0	1.09610121	-6.54066441	220	0	1.11	0.95;
	10128	1	0	0	0	0	0	1.09610121	-6.54066441	220	0	1.11	0.95;
	10129	2	0.2	100	0	0	0	1.04538	1.12957352	400	0	1.05	0.95;
	10130	1	0	0	0	0	0	1.04546344	1.10310114	400	0	1.05	0.95;
	10131	1	0	0	0	0	0	1.00965065	-3.30673726	400	0	1.05	0.95;
	10132	2	0	0	0	0	0	1.02908	-3.91260398	400	0	1.05	0.95;
	10133	1	0	0	0	0	0	1.05049284	-3.12007455	400	0	1.05	0.95;
	10134	1	0	0	0	0	0	1.047631	-3.72817296	400	0	1.05	0.95;
	10135	1	0	0	0	0	0	1.051034	-8.95147986	220	0	1.11	0.95;
	10136	1	0	0	0	0	0	1.07155386	-6.84300209	220	0	1.11	0.95;
	10137	1	0	0	0	0	0	1.04003435	-18.748571	220	0	1.11	0.95;
	10138	1	0	0	0	0	0	1.03398471	-4.30880678	400	0	1.05	0.95;
	10139	2	0	0	0	0	0	1.03742	-1.02658523	400	0	1.05	0.95;
	10140	2	0	0	0	0	0	1.03856	-0.543396959	400	0	1.05	0.95;
	10141	2	0	0	0	0	0	1.01264	-0.917327337	400	0	1.05	0.95;
	10142	1	0	0	0	0	0	1.03741206	-4.01829232	400	0	1.05	0.95;
	10143	1	0	0	0	0	0	1.03591936	-2.31645751	400	0	1.05	0.95;
	10144	1	0	0	0	0	0	1.03593854	-2.3153596	400	0	1.05	0.95;
	10145	1	0	0	0	0	0	1.01023354	-3.0639108	400	0	1.05	0.95;
	10146	2	0	0	0	0	0	1.04296	-2.83976935	220	0	1.11	0.95;
	10147	1	0	0	0	0	0	1.0312185	-4.73348953	400	0	1.05	0.95;
	10148	1	0	0	0	0	0	1.0734864	-6.50975013	220	0	1.11	0.95;
	10149	1	0	0	0	0	0	1.0734673	-6.51262447	220	0	1.11	0.95;
	10150	2	0	0	0	0	0	1.04015	-2.44042645	400	0	1.05	0.95;
	10151	1	0	0	0	0	0	1.04142007	-2.50016221	400	0	1.05	0.95;
	10152	1	0	0	0	0	0	1.04661144	-0.378242845	400	0	1.05	0.95;
	10153	1	0	0	0	0	0	1.03097236	-2.14486694	400	0	1.05	0.95;
	10154	1	80	20	0	0	0	1.03598294	-3.57745103	220	0	1.11	0.95;
	10155	1	0	0	0	0	0	1.08189088	-6.69016002	220	0	1.11	0.95;
	10156	1	0	0	0	0	0	1.03072364	-4.49174609	400	0	1.05	0.95;
	10157	1	0	0	0	0	0	1.08698056	-4.67009326	220	0	1.11	0.95;
	10158	1	0	0	0	0	0	1.01374816	-2.26173687	400	0	1.05	0.95;
	10159	1	0	0	0	0	0	1.10999791	-4.19266253	220	0	1.11	0.95;
	10160	1	0	0	0	0	0	1.06420717	-19.8868189	220	0	1.11	0.95;
	10161	1	0	0	0	0	0	1.02085747	-4.02050841	400	0	1.05	0.95;
	10162	1	0	0	0	0	0	1.05921346	-8.2426494	220	0	1.11	0.95;
	10163	1	0	0	0	0	0	1.09451572	-6.75315613	220	0	1.11	0.95;
	10164	1	0	0	0	0	0	1.02895295	-4.11633545	400	0	1.05	0.95;
	10165	1	0	0	0	0	0	1.03323699	-5.07560042	400	0	1.05	0.95;
	10166	1	0	0	0	0	0	1.07014377	-8.05979349	220	0	1.11	0.95;
	10167	1	0	0	0	0	0	1.02903402	-4.40472478	400	0	1.05	0.95;
	10168	1	0	0	0	0	0	1.02903402	-4.40472478	400	0	1.05	0.95;
	10169	1	0	0	0	0	0	1.02937845	-4.35820744	400	0	1.05	0.95;
	10170	1	0	0	0	0	0	1.02937845	-4.35820744	400	0	1.05	0.95;
	10171	2	-104.8	-159	0	0	0	1.02955	-3.81421264	400	0	1.05	0.95;
	10172	1	247.4	-57.5	0	0	0	1.02971531	-5.20438069	400	0	1.05	0.95;
	10173	1	247.4	-57.5	0	0	0	1.02971531	-5.20438069	400	0	1.05	0.95;
	10174	1	371.5	403.5	0	0	0	1.02061378	-5.43474285	400	0	1.05	0.95;
	10176	2	-249.9	162.6	0	0	0	1.02979	-3.97255256	400	0	1.05	0.95;
	10177	2	-249.9	162.6	0	0	0	1.02979	-3.97255256	400	0	1.05	0.95;
	10178	1	52.5	207.2	0	0	0	1.02728418	-10.1097932	400	0	1.05	0.95;
	10179	1	379.5	54.6	0	0	0	1.03890488	-12.857948	400	0	1.05	0.95;
	10180	1	73.6	-95.6	0	0	0	1.08760288	-16.3624405	220	0	1.11	0.95;
	10181	1	73.6	-95.6	0	0	0	1.08760288	-16.3624405	220	0	1.11	0.95;
	10182	1	107.2	-44.4	0	0	0	1.04995142	-12.2950225	400	0	1.05	0.95;
	10183	1	86	8	0	0	0	1.04860403	-10.1361714	400	0	1.05	0.95;
	10184	1	70	49	0	0	0	1.05072689	-14.0346875	220	0	1.11	0.95;
	10185	1	0	0	0	0	0	1.04939338	-12.401379	400	0	1.05	0.95;
	10186	2	0	0	0	0	0	1.08932	-7.27344365	220	0	1.11	0.95;
	10187	2	0	0	0	0	0	1.0894	-7.24052932	220	0	1.11	0.95;
	10188	2	0	0	0	0	0	1.04594	-8.80221548	400	0	1.05	0.95;
	10189	2	10.2	0	0	0	0	1.04556	-10.0273878	400	0	1.05	0.95;
	10190	2	0	0	0	0	0	1.04288	-9.64953056	400	0	1.05	0.95;
	10191	2	0	0	0	0	0	1.04288	-9.64410268	400	0	1.05	0.95;
	10192	2	0	0	0	0	0	1.04073	-10.8246809	220	0	1.11	0.95;
	10193	1	0	0	0	0	0	1.0407258	-10.826992	220	0	1.11	0.95;
	10194	2	0	0	0	0	0	1.03584	-9.14728948	400	0	1.05	0.95;
	10195	1	0	0	0	0	0	1.03661314	-9.18630007	400	0	1.05	0.95;
	10196	2	0	0	0	0	0	1.04091	-12.3377314	400	0	1.05	0.95;
	10197	1	295	51.9	0	0	0	1.04398578	-11.9321008	400	0	1.05	0.95;
	10198	1	0	0	0	0	0	1.04664555	-10.5294522	400	0	1.05	0.95;
	10199	1	308	40	0	0	0	1.08152425	-9.76607222	220	0	1.11	0.95;
	10200	1	0	0	0	0	0	1.08153801	-9.74936192	220	0	1.11	0.95;
...
];

%% generator data
%	bus	Pg	Qg	Qmax	Qmin	Vg	mBase	status	Pmax	Pmin	Pc1	Pc2	Qc1min	Qc1max	Qc2min	Qc2max	ramp_agc	ramp_10	ramp_30	ramp_q	apf
mpc.gen = [
	10071	133.9	0.785867518	99999	-99999	1.07617	285	1	204.6	133.9	0	0	0	0	0	0	0	0	0	0	0;
	10079	359.9	4406.25271	99999	-99999	1.01319	2031	1	549.9	359.9	0	0	0	0	0	0	0	0	0	0	0;
	10080	7.6	-356.915534	99999	-99999	1.02855	119	1	11.6	7.6	0	0	0	0	0	0	0	0	0	0	0;
	10090	410.4	178.488454	99999	-99999	1.04139	806	1	627	410.4	0	0	0	0	0	0	0	0	0	0	0;
	10094	554.4	10093.9218	99999	-99999	1.03526	970	1	847	554.4	0	0	0	0	0	0	0	0	0	0	0;
	10095	121.8	-2579.90518	99999	-99999	1.02969	1439	1	1241.5	121.8	0	0	0	0	0	0	0	0	0	0	0;
	10100	1267.2	-115.808954	99999	-99999	1.04073	2202	1	1936	1267.2	0	0	0	0	0	0	0	0	0	0	0;
	10104	540	56.8103653	99999	-99999	1.04409	939	1	825	540	0	0	0	0	0	0	0	0	0	0	0;
	10115	280.8	-228.331898	99999	-99999	1.00234	492	1	429	280.8	0	0	0	0	0	0	0	0	0	0	0;
	10116	280.8	-228.331898	99999	-99999	1.00234	492	1	429	280.8	0	0	0	0	0	0	0	0	0	0	0;
	10118	1080	64.0133195	99999	-99999	1.04097	1876	1	1650	1080	0	0	0	0	0	0	0	0	0	0	0;
	10126	424.8	-432.719895	99999	-99999	1.00802	786	1	649	424.8	0	0	0	0	0	0	0	0	0	0	0;
	10129	1656	-438.848972	99999	-99999	1.04538	2974	1	2530	1656	0	0	0	0	0	0	0	0	0	0	0;
	10132	583.2	-89.1211657	99999	-99999	1.02908	1014	1	891	583.2	0	0	0	0	0	0	0	0	0	0	0;
	10139	648	-210.325612	99999	-99999	1.03742	1143	1	990	648	0	0	0	0	0	0	0	0	0	0	0;
	10140	972	-197.971554	99999	-99999	1.03856	1705	1	1485	972	0	0	0	0	0	0	0	0	0	0	0;
	10141	1224	-436.390981	99999	-99999	1.01264	2125	1	1870	1224	0	0	0	0	0	0	0	0	0	0	0;
	10146	115.2	-176.437041	99999	-99999	1.04296	224	1	176	115.2	0	0	0	0	0	0	0	0	0	0	0;
	10150	201.6	11.7229693	99999	-99999	1.04015	427	1	308	201.6	0	0	0	0	0	0	0	0	0	0	0;
	10171	84.6	-9951.47462	99999	-99999	1.02955	715	1	129.3	84.6	0	0	0	0	0	0	0	0	0	0	0;
	10176	191	283.279991	99999	-99999	1.02979	346	1	291.8	191	0	0	0	0	0	0	0	0	0	0	0;
	10177	191	283.279991	99999	-99999	1.02979	346	1	291.8	191	0	0	0	0	0	0	0	0	0	0	0;
	10186	342.7	27.0593718	99999	-99999	1.08932	618	1	534.6	342.7	0	0	0	0	0	0	0	0	0	0	0;
	10187	342.7	27.2104204	99999	-99999	1.0894	618	1	534.6	342.7	0	0	0	0	0	0	0	0	0	0	0;
	10188	347.8	-76.3086746	99999	-99999	1.04594	618	1	531.3	347.8	0	0	0	0	0	0	0	0	0	0	0;
	10189	283	-60.8372127	99999	-99999	1.04556	620	1	542.3	283	0	0	0	0	0	0	0	0	0	0	0;
	10190	371.5	-13.8640851	99999	-99999	1.04288	683	1	600.6	371.5	0	0	0	0	0	0	0	0	0	0	0;
	10191	370.8	-14.0463795	99999	-99999	1.04288	682	1	599.5	370.8	0	0	0	0	0	0	0	0	0	0	0;
	10192	111.6	19.0794876	99999	-99999	1.04073	281	1	247.5	111.6	0	0	0	0	0	0	0	0	0	0	0;
	10194	64.8	-85.1574273	99999	-99999	1.03584	184	1	143	64.8	0	0	0	0	0	0	0	0	0	0	0;
	10196	108	-46.0565698	99999	-99999	1.04091	215	1	165	108	0	0	0	0	0	0	0	0	0	0	0;
	10223	125.5	190.527406	99999	-99999	1.04073	189	1	125.5	0	0	0	0	0	0	0	0	0	0	0	0;
	10225	77.8	131.838412	99999	-99999	1.06248	333	1	272.8	77.8	0	0	0	0	0	0	0	0	0	0	0;
	10226	34.6	97.340216	99999	-99999	1.06441	198	1	140.8	34.6	0	0	0	0	0	0	0	0	0	0	0;
	10227	11.5	71.8172497	99999	-99999	1.10423	191	1	17.6	11.5	0	0	0	0	0	0	0	0	0	0	0;
	10228	18.7	146.271421	99999	-99999	1.06247	135	1	28.6	18.7	0	0	0	0	0	0	0	0	0	0	0;
	10229	39.6	24.8627247	99999	-99999	1.06902	85	1	60.5	39.6	0	0	0	0	0	0	0	0	0	0	0;
	10230	0	18.184025	99999	-99999	1.07323	132	1	0.1	0	0	0	0	0	0	0	0	0	0	0	0;
	10232	11.2	36.2810302	99999	-99999	1.01987	64	1	17.2	11.2	0	0	0	0	0	0	0	0	0	0	0;
	10233	45.4	68.4861293	99999	-99999	1.04665	79	1	69.3	45.4	0	0	0	0	0	0	0	0	0	0	0;
	10234	3.6	205.709861	99999	-99999	1.09129	115	1	5.5	3.6	0	0	0	0	0	0	0	0	0	0	0;
	10235	28.8	18.1153783	99999	-99999	1.08091	83	1	44	28.8	0	0	0	0	0	0	0	0	0	0	0;
	10236	119.5	38.2778497	99999	-99999	1.07896	219	1	182.6	119.5	0	0	0	0	0	0	0	0	0	0	0;
	10237	50.4	132.108372	99999	-99999	1.08023	121	1	77	50.4	0	0	0	0	0	0	0	0	0	0	0;
	10238	61.9	122.325462	99999	-99999	1.00809	179	1	94.6	61.9	0	0	0	0	0	0	0	0	0	0	0;
	10239	62.6	39.6481822	99999	-99999	1.06246	109	1	95.7	62.6	0	0	0	0	0	0	0	0	0	0	0;
	10240	0	11.4280334	99999	-99999	1.0666	128	1	0.1	0	0	0	0	0	0	0	0	0	0	0	0;
	10246	146.2	-49.2847381	99999	-99999	1.03917	262	1	223.3	146.2	0	0	0	0	0	0	0	0	0	0	0;
	10247	102.2	-1.7005808	99999	-99999	1.12	215	1	156.2	102.2	0	0	0	0	0	0	0	0	0	0	0;
	10248	122.4	6.18576774	99999	-99999	1.12	241	1	187	122.4	0	0	0	0	0	0	0	0	0	0	0;
	10249	128	-23.9756492	99999	-99999	1.00179	225	1	195.6	128	0	0	0	0	0	0	0	0	0	0	0;
	10250	374.4	-1.02972464	99999	-99999	1.0404	650	1	572	374.4	0	0	0	0	0	0	0	0	0	0	0;
	10251	374.4	-2.48319558	99999	-99999	1.03995	650	1	572	374.4	0	0	0	0	0	0	0	0	0	0	0;
	10252	374.4	-2.44954479	99999	-99999	1.03994	650	1	572	374.4	0	0	0	0	0	0	0	0	0	0	0;
	10253	187.9	33.4789749	99999	-99999	1.01534	341	1	287.1	187.9	0	0	0	0	0	0	0	0	0	0	0;
	10254	342.7	30.7079001	99999	-99999	1.04999	598	1	523.6	342.7	0	0	0	0	0	0	0	0	0	0	0;
	10255	121	5.43153923	99999	-99999	1.03994	210	1	184.8	121	0	0	0	0	0	0	0	0	0	0	0;
	10256	280.8	32.09379	99999	-99999	1.11998	489	1	429	280.8	0	0	0	0	0	0	0	0	0	0	0;
	10257	140.4	16.693118	99999	-99999	1.11817	250	1	214.5	140.4	0	0	0	0	0	0	0	0	0	0	0;
	10258	129.6	-2.77915991	99999	-99999	1.10518	230	1	198	129.6	0	0	0	0	0	0	0	0	0	0	0;
	10259	283.7	8.34988034	99999	-99999	0.98182	519	1	433.4	283.7	0	0	0	0	0	0	0	0	0	0	0;
	10260	425.5	9.82664246	99999	-99999	1.10941	741	1	650.1	425.5	0	0	0	0	0	0	0	0	0	0	0;
	10261	579.6	16.0746989	99999	-99999	0.99592	1100	1	951.5	579.6	0	0	0	0	0	0	0	0	0	0	0;
	10262	579.6	16.1572325	99999	-99999	0.99592	1100	1	951.5	579.6	0	0	0	0	0	0	0	0	0	0	0;
	10263	67.7	7.80604381	99999	-99999	1.09219	121	1	103.4	67.7	0	0	0	0	0	0	0	0	0	0	0;
	10264	280.8	-3.7840536	99999	-99999	1.00552	489	1	429	280.8	0	0	0	0	0	0	0	0	0	0	0;
	10265	280.8	-6.73938791	99999	-99999	1.10573	496	1	429	280.8	0	0	0	0	0	0	0	0	0	0	0;
	10266	3.6	-7.80712836	99999	-99999	1.04403	72	1	5.5	3.6	0	0	0	0	0	0	0	0	0	0	0;
	10267	4.3	43.2829715	99999	-99999	1.08131	120	1	6.6	4.3	0	0	0	0	0	0	0	0	0	0	0;
	10268	20.9	15.8824428	99999	-99999	1.06395	37	1	31.9	20.9	0	0	0	0	0	0	0	0	0	0	0;
	10269	68.4	127.851024	99999	-99999	1.07428	338	1	291.5	68.4	0	0	0	0	0	0	0	0	0	0	0;
	10270	0	24.3910934	99999	-99999	1.05973	40	1	0.1	0	0	0	0	0	0	0	0	0	0	0	0;
	10271	156.2	71.5311391	99999	-99999	1.06494	286	1	238.7	156.2	0	0	0	0	0	0	0	0	0	0	0;
	10272	24.5	16.2458435	99999	-99999	1.072	116	1	37.4	24.5	0	0	0	0	0	0	0	0	0	0	0;
	10273	165.6	83.3080698	99999	-99999	1.02431	321	1	253	165.6	0	0	0	0	0	0	0	0	0	0	0;
	10274	61.2	118.368718	99999	-99999	1.06504	317	1	225.5	61.2	0	0	0	0	0	0	0	0	0	0	0;
	10275	21.6	5.45113264	99999	-99999	1.06182	125	1	110	21.6	0	0	0	0	0	0	0	0	0	0	0;
	10276	107.3	19.9071336	99999	-99999	1.06034	189	1	163.9	107.3	0	0	0	0	0	0	0	0	0	0	0;
	10277	80.6	59.7998546	99999	-99999	1.06264	225	1	123.2	80.6	0	0	0	0	0	0	0	0	0	0	0;
	10278	129.6	18.8097516	99999	-99999	1.11356	233	1	198	129.6	0	0	0	0	0	0	0	0	0	0	0;
	10279	129.6	18.8097516	99999	-99999	1.11356	233	1	198	129.6	0	0	0	0	0	0	0	0	0	0	0;
	10281	2.9	25.3200761	99999	-99999	1.07868	20	1	4.4	2.9	0	0	0	0	0	0	0	0	0	0	0;
	10282	58.3	143.58252	99999	-99999	1.06767	357	1	287.1	58.3	0	0	0	0	0	0	0	0	0	0	0;
	10284	418.3	179.552271	99999	-99999	1.12	919	1	771.1	418.3	0	0	0	0	0	0	0	0	0	0	0;
	10285	0	-21.854501	99999	-99999	1.0574	132	1	0.1	0	0	0	0	0	0	0	0	0	0	0	0;
	10288	20.9	-26.454789	99999	-99999	1.03369	63	1	31.9	20.9	0	0	0	0	0	0	0	0	0	0	0;
	10289	0.7	-25.1446105	99999	-99999	1.05256	41	1	34.1	0.7	0	0	0	0	0	0	0	0	0	0	0;
	10290	28.1	27.0892769	99999	-99999	1.06119	49	1	42.9	28.1	0	0	0	0	0	0	0	0	0	0	0;
	10291	5.8	48.9774869	99999	-99999	1.08362	71	1	8.8	5.8	0	0	0	0	0	0	0	0	0	0	0;
	10292	312.5	164.132107	99999	-99999	1.08678	638	1	477.4	312.5	0	0	0	0	0	0	0	0	0	0	0;
	10293	19.4	20.3270024	99999	-99999	1.07356	46	1	29.7	19.4	0	0	0	0	0	0	0	0	0	0	0;
	10294	7.9	33.2226669	99999	-99999	1.08819	74	1	12.1	7.9	0	0	0	0	0	0	0	0	0	0	0;
	10295	151.9	124.346694	99999	-99999	0.99474	299	1	232.1	151.9	0	0	0	0	0	0	0	0	0	0	0;
	10296	197.3	132.400445	99999	-99999	1.08634	461	1	301.4	197.3	0	0	0	0	0	0	0	0	0	0	0;
	24	110	90.1857432	140	-49	1.07767	235.3	1	221	110	0	0	0	0	0	0	0	0	0	0	0;
	25	135	-22	124	-22	1.0776	235.3	1	200	135	0	0	0	0	0	0	0	0	0	0	0;
	37	369.108111	75.710426	190	-19	1.11	426	1	370	240	0	0	0	0	0	0	0	0	0	0	0;
	37	370	75.710426	190	-19	1.11	426	1	370	240	0	0	0	0	0	0	0	0	0	0	0;
	38	370	18.2465772	190	-19	1.11	426	1	370	240	0	0	0	0	0	0	0	0	0	0	0;
	38	370	18.2465772	190	-19	1.11	426	1	370	240	0	0	0	0	0	0	0	0	0	0	0;
	39	370	95.2676192	190	-19	1.11	426	1	370	240	0	0	0	0	0	0	0	0	0	0	0;
	40	370	50.4142272	190	-19	1.04756	426	1	370	240	0	0	0	0	0	0	0	0	0	0	0;
	40	370	50.4142272	190	-19	1.04756	426	1	370	240	0	0	0	0	0	0	0	0	0	0	0;
	40	370	50.4142272	190	-19	1.04756	426	1	370	240	0	0	0	0	0	0	0	0	0	0	0;
	41	370	1.25236802	190	-19	1.04755	426	1	370	240	0	0	0	0	0	0	0	0	0	0	0;
	41	370	1.25236802	190	-19	1.04755	426	1	370	240	0	0	0	0	0	0	0	0	0	0	0;
	41	370	1.25236802	190	-19	1.04755	426	1	370	240	0	0	0	0	0	0	0	0	0	0	0;
	57	110	95.4627162	152	-33	1.10991	235	1	215	110	0	0	0	0	0	0	0	0	0	0	0;
	57	171.6	95.4627162	152	-33	1.10991	235	1	220	125	0	0	0	0	0	0	0	0	0	0	0;
	58	125	57.9552154	149	-33	1.1097	235	1	225	125	0	0	0	0	0	0	0	0	0	0	0;
	58	0	0	149	-33	1	235	0	225	120	0	0	0	0	0	0	0	0	0	0	0;
	58	110	57.9552154	149	-33	1.1097	235	1	225	110	0	0	0	0	0	0	0	0	0	0	0;
	59	225	148.370555	149	-33	1.11	235	1	225	110	0	0	0	0	0	0	0	0	0	0	0;
	60	535	308.355763	363	-47	1.05	588	1	535	255	0	0	0	0	0	0	0	0	0	0	0;
	61	278.8	-100	348	-100	1.04992	588	1	560	250	0	0	0	0	0	0	0	0	0	0	0;
	70	129	-11	105	-11	1.10739	235	1	225	129	0	0	0	0	0	0	0	0	0	0	0;
	71	129	59.0500761	105	-11	1.10739	235	1	225	129	0	0	0	0	0	0	0	0	0	0	0;
	71	0	0	99	-10	1	235	0	225	129	0	0	0	0	0	0	0	0	0	0	0;
	72	0	0	105	-11	1	235	0	225	129	0	0	0	0	0	0	0	0	0	0	0;
	72	129	-11	105	-11	1.04287	235	1	225	129	0	0	0	0	0	0	0	0	0	0	0;
	73	129	-10	99	-10	1.0429	235	1	225	129	0	0	0	0	0	0	0	0	0	0	0;
	73	129	-11	105	-11	1.0429	235	1	225	129	0	0	0	0	0	0	0	0	0	0	0;
	74	112	60	60	0	1.1043	120	1	112	0	0	0	0	0	0	0	0	0	0	0	0;
	94	220	114.132787	131	-6	1.10247	270.6	1	220	125	0	0	0	0	0	0	0	0	0	0	0;
	94	225	114.132787	131	-6	1.10247	270.6	1	225	140	0	0	0	0	0	0	0	0	0	0	0;
	95	225	85.8282822	131	-6	1.10442	270.6	1	225	130	0	0	0	0	0	0	0	0	0	0	0;
	95	225	85.8282822	131	-6	1.10442	270.6	1	225	125	0	0	0	0	0	0	0	0	0	0	0;
	95	225	85.8282822	131	-6	1.10442	270.6	1	225	130	0	0	0	0	0	0	0	0	0	0	0;
	98	383	21.0772979	213	-31	1.05	426	1	383	220	0	0	0	0	0	0	0	0	0	0	0;
	98	380	1.01473232	119	-31	1.05	435.3	1	380	220	0	0	0	0	0	0	0	0	0	0	0;
	115	12	0	0	0	1.09646	12	1	12	0	0	0	0	0	0	0	0	0	0	0	0;
	115	6	0	0	0	1.09646	6	1	6	0	0	0	0	0	0	0	0	0	0	0	0;
	121	0	0	120	-10	1	270.6	0	225	120	0	0	0	0	0	0	0	0	0	0	0;
	122	225	119.514791	120	-10	1.10922	270.6	1	225	120	0	0	0	0	0	0	0	0	0	0	0;
	123	120	6.82812848	73	-1	1.10624	150	1	120	70	0	0	0	0	0	0	0	0	0	0	0;
	124	120	71.4887792	73	-1	1.10639	150	1	120	70	0	0	0	0	0	0	0	0	0	0	0;
	134	0	0	80	0	1	150	0	120	70	0	0	0	0	0	0	0	0	0	0	0;
	135	120	80	80	0	1.09923	150	1	120	70	0	0	0	0	0	0	0	0	0	0	0;
	136	80	31	31	0	1.07793	117.5	1	110	80	0	0	0	0	0	0	0	0	0	0	0;
	144	215	63.5925879	135	-35	1.10999	270.6	1	215	135	0	0	0	0	0	0	0	0	0	0	0;
	145	215	51.7231353	135	-35	1.11	270.6	1	215	135	0	0	0	0	0	0	0	0	0	0	0;
	145	225	54.2738157	140	-35	1.11	270.6	1	225	135	0	0	0	0	0	0	0	0	0	0	0;
	146	225	-34.7703771	140	-36	1.04293	270.6	1	225	135	0	0	0	0	0	0	0	0	0	0	0;
	146	220	-34.7913366	137	-36	1.04293	270.6	1	220	135	0	0	0	0	0	0	0	0	0	0	0;
	152	0	0	72	-29	1	150	0	135	-135	0	0	0	0	0	0	0	0	0	0	0;
	152	0	0	72	-29	1	150	0	135	-135	0	0	0	0	0	0	0	0	0	0	0;
	153	0	0	72	-29	1	150	0	135	-135	0	0	0	0	0	0	0	0	0	0	0;
	153	0	0	72	-29	1	150	0	135	-135	0	0	0	0	0	0	0	0	0	0	0;
	154	120	85	85	-15	1.0916	150	1	120	94	0	0	0	0	0	0	0	0	0	0	0;
	155	120	85	85	-15	1.0916	150	1	120	94	0	0	0	0	0	0	0	0	0	0	0;
	155	0	0	85	-15	1	150	0	120	94	0	0	0	0	0	0	0	0	0	0	0;
	169	0	0	25	0	1	51.4	0	50	40	0	0	0	0	0	0	0	0	0	0	0;
	170	0	0	90	-15	1	150	0	120	80	0	0	0	0	0	0	0	0	0	0	0;
	170	0	0	25	0	1	51.4	0	50	45	0	0	0	0	0	0	0	0	0	0	0;
	172	100	116.663081	119	-31	1.06808	252.4	1	232	100	0	0	0	0	0	0	0	0	0	0	0;
	172	0	0	111	-21	1	237.5	0	205	135	0	0	0	0	0	0	0	0	0	0	0;
	173	0	0	111	-21	1	237.5	0	205	135	0	0	0	0	0	0	0	0	0	0	0;
	173	0	0	102	-15	1	252.4	0	222	90	0	0	0	0	0	0	0	0	0	0	0;
	174	90	96.9603962	102	-15	1.03111	252.4	1	222	90	0	0	0	0	0	0	0	0	0	0	0;
	175	90	37.5047427	102	-15	1.03109	252.4	1	222	90	0	0	0	0	0	0	0	0	0	0	0;
	175	100	36.2221239	93	-10	1.03109	252.4	1	232	100	0	0	0	0	0	0	0	0	0	0	0;
	180	261	98.8304914	127	-35	1.11	287.3	1	261	104	0	0	0	0	0	0	0	0	0	0	0;
	180	261	98.8304914	127	-35	1.11	287.3	1	261	104	0	0	0	0	0	0	0	0	0	0	0;
	181	206	103	103	-17	1.11	238.4	1	206	120	0	0	0	0	0	0	0	0	0	0	0;
	181	261	127	127	-35	1.11	287.3	1	261	104	0	0	0	0	0	0	0	0	0	0	0;
	182	235	13.730849	145	-38	1.11	263.9	1	235	94	0	0	0	0	0	0	0	0	0	0	0;
	182	235	13.730849	145	-38	1.11	263.9	1	235	94	0	0	0	0	0	0	0	0	0	0	0;
	183	206	103	103	-17	1.04854	238.4	1	206	120	0	0	0	0	0	0	0	0	0	0	0;
	183	206	103	103	-17	1.04854	238.4	1	206	120	0	0	0	0	0	0	0	0	0	0	0;
	191	200	104	104	-23	1.08579	233.2	1	200	150	0	0	0	0	0	0	0	0	0	0	0;
	192	200	104	104	-23	1.08551	233.2	1	200	150	0	0	0	0	0	0	0	0	0	0	0;
	192	0	0	104	-23	1	233.2	0	200	145	0	0	0	0	0	0	0	0	0	0	0;
	192	0	0	104	-23	1	233.2	0	200	145	0	0	0	0	0	0	0	0	0	0	0;
	193	464	294	294	-259	1.03481	464	1	464	208	0	0	0	0	0	0	0	0	0	0	0;
	208	188	100	100	0	1.06766	218.3	1	188	76	0	0	0	0	0	0	0	0	0	0	0;
	240	179	-59.7308742	105	-62	1.02448	209	1	179	-200	0	0	0	0	0	0	0	0	0	0	0;
	240	179	-59.7308742	105	-62	1.02448	209	1	179	-200	0	0	0	0	0	0	0	0	0	0	0;
	240	0	0	160	-100	1	209	0	179	-200	0	0	0	0	0	0	0	0	0	0	0;
	241	179	-15.528652	160	-100	1.02448	209	1	179	-200	0	0	0	0	0	0	0	0	0	0	0;
	244	220	11.7009209	100	0	1.11	177.1	1	220	112.5	0	0	0	0	0	0	0	0	0	0	0;
	254	55	20	20	0	1.09551	78.8	1	55	23	0	0	0	0	0	0	0	0	0	0	0;
	254	43.5	20	20	0	1.09551	68.8	1	50	25	0	0	0	0	0	0	0	0	0	0	0;
	254	50	20	20	0	1.09551	68.8	1	50	25	0	0	0	0	0	0	0	0	0	0	0;
	254	23	20	20	0	1.09551	27.6	1	23	7	0	0	0	0	0	0	0	0	0	0	0;
	267	2.1	1	1	0	1.05867	0.7	1	2.1	0.5	0	0	0	0	0	0	0	0	0	0	0;
	268	2.1	1	1	0	1.07476	0.7	1	2.1	0.5	0	0	0	0	0	0	0	0	0	0	0;
	278	0	0	5	0	1	10.3	0	7.2	5.9	0	0	0	0	0	0	0	0	0	0	0;
	279	0	0	5	0	1	10.3	0	7.2	5.9	0	0	0	0	0	0	0	0	0	0	0;
	295	5	3.75	3.75	0	1.08251	5	1	5	1	0	0	0	0	0	0	0	0	0	0	0;
	295	5	3.75	3.75	0	1.08251	5	1	5	1	0	0	0	0	0	0	0	0	0	0	0;
	295	5	3.75	3.75	0	1.08251	5	1	5	1	0	0	0	0	0	0	0	0	0	0	0;
	295	5	3.75	3.75	0	1.08251	5	1	5	1	0	0	0	0	0	0	0	0	0	0	0;
	310	370	190	190	-19	0.99995	426	1	370	240	0	0	0	0	0	0	0	0	0	0	0;
	316	0	0	2	0	1	4	0	5.7	1	0	0	0	0	0	0	0	0	0	0	0;
	316	0	0	2	0	1	4	0	5.7	1	0	0	0	0	0	0	0	0	0	0	0;
	376	6.6	5	5	0	1.09167	8.4	1	6.6	5.4	0	0	0	0	0	0	0	0	0	0	0;
	379	0.9	1	1	0	1.11164	0.9	1	0.9	0.3	0	0	0	0	0	0	0	0	0	0	0;
	379	0.9	1	1	0	1.11164	0.9	1	0.9	0.3	0	0	0	0	0	0	0	0	0	0	0;
	379	0.9	1	1	0	1.11164	0.9	1	0.9	0.3	0	0	0	0	0	0	0	0	0	0	0;
	383	27	7	7	0	1.11072	31.3	1	27	11	0	0	0	0	0	0	0	0	0	0	0;
...
];

%% branch data
%	fbus	tbus	r	x	b	rateA	rateB	rateC	ratio	angle	status	angmin	angmax	Pf	Qf	Pt	Qt
mpc.branch = [
	10330	10331	1e-05	8e-05	0	99999	19052	19052	0	0	1	-360	360	0.0000	0.0000	0.0000	0.0000;
	10300	10355	0.05932	0.20245	0	99999	19052	19052	0	0	1	-360	360	-6.5008	-4.2931	6.5338	4.4059;
	10300	10360	0.02058	0.05185	0	99999	19052	19052	0	0	1	-360	360	-27.4992	-8.7069	27.6563	9.1026;
	10367	10201	2e-05	-0.04958	0	99999	200	200	0.999	0	1	-360	360	-96.2457	6.6738	96.2475	-11.0865;
	10367	10202	6e-05	0.08346	0	99999	200	200	0.99999	0	1	-360	360	96.2457	-6.6738	-96.2404	14.1166;
	10366	10367	0.0026	0.25917	0	99999	200	200	0.99999	0	1	-360	360	-0.0000	-0.0000	0.0000	0.0000;
	10368	10215	2e-05	-0.04961	0	99999	200	200	0.999	0	1	-360	360	-145.1829	-20.2905	145.1868	10.7367;
	10368	10216	6e-05	0.08373	0	99999	200	200	0.99999	0	1	-360	360	145.1829	20.2905	-145.1713	-4.1340;
	10369	10368	0.0026	0.26125	0	99999	200	200	0.99999	0	1	-360	360	0.0000	0.0000	0.0000	0.0000;
	10090	10083	8e-05	0.00079	0.41456	99999	1247	1247	0	0	1	-360	360	-9.8657	-24.5671	9.8657	-20.3919;
	10138	10164	0.00168	0.01733	0.75504	99999	1746	1746	0	0	1	-360	360	-17.5445	-8.6045	17.5652	-71.5135;
	10139	10109	0.00071	0.00594	0.27872	99999	1386	1386	0	0	1	-360	360	331.7406	-139.4116	-330.9125	116.1968;
	10139	10144	0.00075	0.00681	0.312	99999	1386	1386	0	0	1	-360	360	353.5800	-29.1695	-352.7077	3.5591;
	10139	10153	0.00194	0.02	0.8336	99999	1386	1386	0	0	1	-360	360	106.7082	-20.7453	-106.4924	-66.1902;
	10140	10110	0.00071	0.00594	0.27872	99999	1386	1386	0	0	1	-360	360	384.4198	-135.6096	-383.3513	114.3547;
	10140	10143	0.00075	0.00681	0.312	99999	1386	1386	0	0	1	-360	360	488.1595	-22.7533	-486.5022	4.2340;
	10140	10153	0.00194	0.02	0.8336	99999	1386	1386	0	0	1	-360	360	152.2121	-18.2287	-151.7825	-66.6011;
	10141	10153	0.00233	0.01696	0.70784	99999	1746	1746	0	0	1	-360	360	114.8616	-160.1176	-114.2135	90.9249;
	10090	10085	0.00017	0.00148	1.23008	99999	1247	1247	0	0	1	-360	360	-61.2904	-49.3006	61.2968	-84.0266;
	10141	10158	0.00204	0.01707	0.71344	99999	1746	1746	0	0	1	-360	360	138.5316	-58.0535	-138.1407	-11.9141;
	10141	10158	0.00204	0.01707	0.71344	99999	1746	1746	0	0	1	-360	360	138.5316	-58.0535	-138.1407	-11.9141;
	10143	10144	1e-05	6e-05	0	99999	1732	1732	0	0	1	-360	360	-38.7146	-26.6503	38.7148	26.6515;
	10143	10153	0.00169	0.01381	0.6496	99999	1386	1386	0	0	1	-360	360	-18.3405	4.5325	18.3702	-73.6679;
	10143	10156	0.00119	0.00969	0.4544	99999	1386	1386	0	0	1	-360	360	419.7150	-12.4395	-417.7600	-20.1600;
	10144	10126	0.00306	0.02537	1.19168	99999	1386	1386	0	0	1	-360	360	48.1921	44.3939	-47.7913	-165.5574;
	10144	10153	0.00169	0.01381	0.6496	99999	1386	1386	0	0	1	-360	360	-18.1775	4.6553	18.2073	-73.7916;
	10144	10165	0.00244	0.02044	0.9584	99999	831	831	0	0	1	-360	360	250.9628	-61.6171	-249.5284	-28.9519;
	10091	10090	9e-05	0.00106	1.10432	99999	1247	1247	0	0	1	-360	360	-103.5674	-105.9506	103.5781	-13.6220;
	10145	10147	0.00194	0.01606	0.75456	99999	1787	1787	0	0	1	-360	360	170.8882	-188.3963	-169.9060	117.9028;
	10145	10158	0.00189	0.01232	0.61088	99999	1746	1746	0	0	1	-360	360	-117.9001	-41.0904	118.1593	-19.7817;
	10171	10094	0	6e-05	0	99999	1593	1593	0	0	1	-360	360	142.4549	-9797.8785	-142.4549	9852.2300;
	10145	10082	0.00091	0.00923	0.39197	99999	1642	1642	0	0	1	-360	360	140.4894	38.9035	-140.2824	-76.5487;
	10145	10082	0.00091	0.00923	0.39197	99999	1642	1642	0	0	1	-360	360	140.4894	38.9035	-140.2824	-76.5487;
	10146	10154	0.00503	0.01845	0.05812	99999	408	408	0	0	1	-360	360	80.3133	14.8692	-80.0000	-20.0000;
	10172	10095	0	6e-05	0	99999	1386	1386	0	0	1	-360	360	-139.5967	43.4477	139.5967	-43.4356;
	10147	10153	0.00156	0.01288	0.6032	99999	1386	1386	0	0	1	-360	360	-366.1732	22.6715	368.1841	-70.1981;
	10173	10095	0	6e-05	0	99999	1386	1386	0	0	1	-360	360	-139.5967	43.4477	139.5967	-43.4356;
	10147	10153	0.00156	0.01288	0.6032	99999	1386	1386	0	0	1	-360	360	-366.1732	22.6715	368.1841	-70.1981;
	10174	10096	2e-05	0.00016	0.0008	99999	1386	1386	0	0	1	-360	360	-292.5163	-383.0847	292.5609	383.3581;
	10147	10161	0.00113	0.00962	0.4528	99999	1787	1787	0	0	1	-360	360	-121.3511	102.0913	121.6767	-146.9891;
	10176	10098	0.00029	0.00219	0.11056	99999	1386	1386	0	0	1	-360	360	546.2633	106.8816	-545.4125	-112.1372;
	10177	10098	0.00029	0.00219	0.11056	99999	1386	1386	0	0	1	-360	360	546.2633	106.8816	-545.4125	-112.1372;
	10147	10169	0.00041	0.00423	0.18496	99999	1386	1386	0	0	1	-360	360	-158.4791	50.9227	158.5902	-69.4106;
	10147	10170	0.00041	0.00423	0.18496	99999	1386	1386	0	0	1	-360	360	-158.4791	50.9227	158.5902	-69.4106;
	10091	10090	9e-05	0.00106	1.10432	99999	1247	1247	0	0	1	-360	360	-103.5674	-105.9506	103.5781	-13.6220;
	10147	10037	0.00105	0.00925	0.37437	99999	1386	1386	0	0	1	-360	360	554.9065	-181.1056	-551.6095	169.9482;
	10147	10037	0.00105	0.00925	0.37437	99999	1386	1386	0	0	1	-360	360	554.9065	-181.1056	-551.6095	169.9482;
	10148	10136	0.00293	0.01074	0.03436	99999	408	408	0	0	1	-360	360	62.9305	0.3493	-62.8297	-3.9321;
	10148	10149	2e-05	0.0001	0	99999	762	762	0	0	1	-360	360	59.5295	8.5999	-59.5289	-8.5968;
	10149	10136	0.00293	0.01074	0.03436	99999	408	408	0	0	1	-360	360	62.3800	0.3052	-62.2810	-3.8944;
	10149	10162	0.01595	0.06457	0.17037	99999	301	301	0	0	1	-360	360	55.8089	0.8975	-55.3619	-18.4612;
	10151	10147	0.00188	0.01925	0.8432	99999	1386	1386	0	0	1	-360	360	221.0981	-7.8900	-220.2259	-73.7377;
	10152	10164	0.00364	0.03742	1.6384	99999	1746	1746	0	0	1	-360	360	191.2181	-52.8230	-189.9578	-110.6878;
	10156	10165	0.00131	0.011	0.5168	99999	831	831	0	0	1	-360	360	94.5700	-61.7626	-94.4452	7.7720;
	10158	10081	0.00127	0.0132	0.5505	99999	1746	1746	0	0	1	-360	360	-299.2883	-153.6330	300.5894	109.4125;
	10091	10164	0.0023	0.02084	0.8752	99999	1746	1746	0	0	1	-360	360	-33.5492	15.7752	33.6578	-108.5278;
	10159	10163	0.00517	0.03967	0.12439	99999	457	457	0	0	1	-360	360	140.4748	20.4076	-139.6137	-28.9141;
	10159	10163	0.00517	0.03967	0.12439	99999	457	457	0	0	1	-360	360	140.4748	20.4076	-139.6137	-28.9141;
	10160	10137	0.0099	0.03659	0.11674	99999	343	343	0	0	1	-360	360	-38.1152	74.6047	38.8188	-84.9287;
	10161	10145	0.00088	0.007	0.3296	99999	1787	1787	0	0	1	-360	360	-222.7106	167.8127	223.4184	-196.1762;
	10162	10122	0.00527	0.0193	0.06156	99999	408	408	0	0	1	-360	360	95.0801	20.9245	-94.6276	-26.1150;
	10162	10122	0.00527	0.0193	0.06156	99999	408	408	0	0	1	-360	360	95.0801	20.9245	-94.6276	-26.1150;
	10164	10165	0.00323	0.03369	1.40518	99999	1746	1746	0	0	1	-360	360	51.1490	-91.9321	-51.0598	-56.5307;
	10164	10080	6e-05	0.00059	0.02467	99999	1746	1746	0	0	1	-360	360	-128.0747	82.0446	128.0879	-84.5254;
	10092	10089	0.00046	0.00474	0.01943	99999	960	960	0	0	1	-360	360	-41.9631	-34.4250	41.9743	32.2481;
	10164	10080	6e-05	0.00059	0.02467	99999	1746	1746	0	0	1	-360	360	-128.0747	82.0446	128.0879	-84.5254;
	10165	10091	0.00067	0.00696	0.2904	99999	1746	1746	0	0	1	-360	360	-146.2893	-113.5355	146.4839	84.3261;
	10167	10169	8e-05	0.00067	0.02976	99999	1884	1884	0	0	1	-360	360	-132.7750	-38.5698	132.7893	35.5377;
	10168	10170	8e-05	0.00067	0.02976	99999	1884	1884	0	0	1	-360	360	-132.7750	-38.5698	132.7893	35.5377;
	10310	10311	8e-05	0.00041	0	99999	111	111	0	0	1	-360	360	0.0000	0.0000	0.0000	0.0000;
	10330	10359	0.01322	0.04793	0.0092	99999	204	204	0	0	1	-360	360	-133.5000	-25.5000	135.8265	32.9414;
	10331	10359	0.01322	0.04793	0.0092	99999	204	204	0	0	1	-360	360	-133.5000	-25.5000	135.8265	32.9414;
	10092	10157	0.00627	0.02339	0.07357	99999	343	343	0	0	1	-360	360	-15.6111	-7.6177	15.6247	-1.0114;
	10346	10347	8e-05	0.00041	0	99999	150	150	0	0	1	-360	360	0.0000	0.0000	0.0000	0.0000;
	10359	10310	0.02975	0.10992	0.0219	99999	204	204	0	0	1	-360	360	28.7294	4.4438	-28.5000	-6.0000;
	10359	10311	0.02975	0.10992	0.0219	99999	204	204	0	0	1	-360	360	28.7294	4.4438	-28.5000	-6.0000;
	10359	10346	0.01157	0.04298	0.00859	99999	183	183	0	0	1	-360	360	67.9882	7.8681	-67.5000	-7.0000;
	10359	10347	0.01157	0.04298	0.00859	99999	183	183	0	0	1	-360	360	67.9882	7.8681	-67.5000	-7.0000;
	10301	10319	0.01298	0.09959	0.01949	99999	229	229	0	0	1	-360	360	0.1417	17.0350	-0.1049	-18.9845;
	10301	10319	0.01298	0.09959	0.01949	99999	229	229	0	0	1	-360	360	0.1417	17.0350	-0.1049	-18.9845;
	10301	10327	0.03223	0.16033	0.03037	99999	229	229	0	0	1	-360	360	54.0350	26.7949	-53.0000	-25.0000;
	10093	10088	0.00046	0.00474	0.01943	99999	960	960	0	0	1	-360	360	-32.5713	-25.9444	32.5778	23.7088;
	10301	10327	0.03223	0.16033	0.03037	99999	229	229	0	0	1	-360	360	54.0350	26.7949	-53.0000	-25.0000;
	10313	10314	1e-05	0.00041	0	99999	381	381	0	0	1	-360	360	-7.5954	-1.4219	7.5954	1.4222;
	10315	10316	1e-05	0.00041	0	99999	191	191	0	0	1	-360	360	3.3974	39.3640	-3.3973	-39.3587;
	10315	10317	1e-05	0.00041	0	99999	191	191	0	0	1	-360	360	-6.7979	-78.9564	6.7984	78.9779;
	10339	10313	0.00012	0.00118	0.00028	99999	389	389	0	0	1	-360	360	-7.5953	-1.4518	7.5954	1.4219;
	10339	10340	1e-05	0.00041	0	99999	381	381	0	0	1	-360	360	-41.2422	-10.5288	41.2423	10.5356;
	10340	10314	7e-05	0.00066	0.00016	99999	389	389	0	0	1	-360	360	7.5954	1.4051	-7.5954	-1.4222;
	10354	10353	1e-05	0.00041	0	99999	381	381	0	0	1	-360	360	0.0000	0.0000	0.0000	0.0000;
	10303	10304	8e-05	0.00041	0	99999	229	229	0	0	1	-360	360	0.0000	0.0000	0.0000	0.0000;
	10093	10157	0.0064	0.02314	0.07299	99999	343	343	0	0	1	-360	360	-0.6124	0.7462	0.6138	-9.3734;
	10322	10323	8e-05	0.00041	0	99999	114	114	0	0	1	-360	360	0.0000	0.0000	0.0000	0.0000;
	10099	10115	0.00014	0.00127	0.0568	99999	1746	1746	0	0	1	-360	360	-280.6193	224.2506	280.8000	-228.3319;
	10084	10087	7e-05	0.00077	0.4808	99999	1351	1351	0	0	1	-360	360	-307.4909	-135.0340	307.5594	83.5058;
	10099	10116	0.00014	0.00127	0.0568	99999	1746	1746	0	0	1	-360	360	-280.6193	224.2506	280.8000	-228.3319;
	10099	10145	0.00091	0.00842	0.37584	99999	1386	1386	0	0	1	-360	360	268.8401	-109.5051	-268.1148	78.0642;
	10099	10145	0.00091	0.00842	0.37584	99999	1386	1386	0	0	1	-360	360	268.8401	-109.5051	-268.1148	78.0642;
	10099	10158	0.00115	0.01064	0.47546	99999	1884	1884	0	0	1	-360	360	77.2601	-116.3445	-77.0950	69.4386;
	10099	10158	0.00115	0.01064	0.47546	99999	1884	1884	0	0	1	-360	360	77.2601	-116.3445	-77.0950	69.4386;
	10099	10079	0.00206	0.01905	0.85158	99999	1884	1884	0	0	1	-360	360	-222.7134	-58.5233	223.7304	-18.7719;
	10099	10079	0.00206	0.01905	0.85158	99999	1884	1884	0	0	1	-360	360	-222.7134	-58.5233	223.7304	-18.7719;
	10100	10118	0.00034	0.00354	0.1544	99999	1732	1732	0	0	1	-360	360	-195.7738	4.0195	195.8946	-19.4890;
	10100	10118	0.00034	0.00354	0.1544	99999	1732	1732	0	0	1	-360	360	-195.7738	4.0195	195.8946	-19.4890;
	10100	10151	0.00075	0.00744	0.3264	99999	1386	1386	0	0	1	-360	360	581.6799	-74.1204	-579.3150	62.2043;
	10084	10087	7e-05	0.00076	0.51264	99999	1351	1351	0	0	1	-360	360	-311.6336	-137.8150	311.7040	82.8343;
	10100	10151	0.00075	0.00744	0.3264	99999	1386	1386	0	0	1	-360	360	581.6799	-74.1204	-579.3150	62.2043;
	10100	10153	0.00144	0.01506	0.6592	99999	1386	1386	0	0	1	-360	360	247.6939	12.1964	-246.8477	-74.0798;
	10100	10153	0.00144	0.01506	0.6592	99999	1386	1386	0	0	1	-360	360	247.6939	12.1964	-246.8477	-74.0798;
	10101	10135	0.01399	0.05116	0.16408	99999	343	343	0	0	1	-360	360	-252.3013	57.8204	261.0857	-43.6584;
	10101	10137	0.0049	0.01791	0.0574	99999	343	343	0	0	1	-360	360	252.3013	-57.8204	-249.2905	62.6079;
	10102	10166	0.00909	0.03285	0.10503	99999	343	343	0	0	1	-360	360	-60.0000	-12.5000	60.2932	1.6132;
	10102	10166	0.00909	0.03285	0.10503	99999	343	343	0	0	1	-360	360	-60.0000	-12.5000	60.2932	1.6132;
	10103	10104	0.00125	0.00625	0	99999	1386	1386	0	0	1	-360	360	-338.4753	-1.4867	339.8000	8.1104;
	10103	10120	0.00061	0.00564	0.252	99999	1884	1884	0	0	1	-360	360	162.2307	-31.5454	-162.0803	5.6913;
	10103	10120	0.00061	0.00564	0.252	99999	1884	1884	0	0	1	-360	360	162.2307	-31.5454	-162.0803	5.6913;
	10085	10084	8e-05	0.00095	0.58816	99999	1351	1351	0	0	1	-360	360	-306.5115	-119.3665	306.5865	56.4257;
	10103	10150	0.00013	0.00119	0.05328	99999	1884	1884	0	0	1	-360	360	-201.5509	-17.0357	201.6000	11.7230;
	10105	10148	0.00492	0.01798	0.05731	99999	408	408	0	0	1	-360	360	-80.7716	-33.5795	81.0947	28.2110;
	10105	10149	0.00492	0.01798	0.05731	99999	408	408	0	0	1	-360	360	-80.4459	-33.5592	80.7667	28.1822;
	10106	10147	0.00131	0.01339	0.58672	99999	1386	1386	0	0	1	-360	360	122.4143	-17.9350	-122.2286	-42.7517;
	10106	10151	0.00056	0.00584	0.25616	99999	1386	1386	0	0	1	-360	360	-445.8827	-90.2313	446.9538	73.8073;
	10107	10109	0.00014	0.00127	0.0568	99999	1386	1386	0	0	1	-360	360	-112.5875	12.6938	112.6042	-18.7156;
	10108	10110	0.00014	0.00127	0.0568	99999	1386	1386	0	0	1	-360	360	-119.7954	11.4608	119.8141	-17.4709;
	10111	10158	0.00118	0.01186	0.50192	99999	1746	1746	0	0	1	-360	360	187.3671	65.0464	-186.8800	-112.3733;
	10111	10081	0.00051	0.00528	0.22019	99999	1746	1746	0	0	1	-360	360	-330.5611	-137.1163	331.1665	120.0065;
	10112	10159	0.00153	0.00561	0.01801	99999	408	408	0	0	1	-360	360	-58.7089	-22.7579	58.7577	20.7217;
	10085	10086	0	6e-05	0	99999	2079	2079	0	0	1	-360	360	83.6147	19.7931	-83.6147	-19.7890;
	10112	10159	0.00109	0.004	0.01284	99999	408	408	0	0	1	-360	360	-82.3376	-31.1748	82.4060	29.8464;
	10112	10159	0.00109	0.004	0.01284	99999	408	408	0	0	1	-360	360	-82.3376	-31.1748	82.4060	29.8464;
	10113	10141	0.00031	0.00286	0.12781	99999	1884	1884	0	0	1	-360	360	-536.7529	248.1863	537.8089	-251.6205;
	10113	10153	0.00037	0.00343	0.15334	99999	1884	1884	0	0	1	-360	360	133.5581	-405.6877	-132.9297	395.4182;
	10114	10127	0.01116	0.04091	0.13068	99999	366	366	0	0	1	-360	360	8.6307	-24.8205	-8.5964	9.3247;
	10183	10198	0.00084	0.01065	0.39616	99999	831	831	0	0	1	-360	360	71.8289	-7.9196	-71.7880	-35.0414;
	10183	10217	0.00146	0.01809	0.63888	99999	831	831	0	0	1	-360	360	189.3210	-55.4813	-188.8396	-8.8965;
	10184	10199	0.01019	0.06849	0.1012	99999	326	326	0	0	1	-360	360	-127.0312	-29.3313	128.5727	28.1868;
	10184	10209	0.01204	0.06105	0.08659	99999	274	274	0	0	1	-360	360	19.3557	-18.1345	-19.2954	8.8293;
	10184	10216	0.01029	0.0401	0.10522	99999	274	274	0	0	1	-360	360	37.6755	-1.5342	-37.5415	-9.5025;
	10185	10205	0.00065	0.00657	0.2224	99999	831	831	0	0	1	-360	360	0.0000	0.0000	0.0009	-24.4644;
	10186	10199	0.00155	0.01508	0.02396	99999	535	535	0	0	1	-360	360	342.7000	27.0594	-341.1553	-14.8540;
	10187	10200	0.00156	0.01518	0.02415	99999	535	535	0	0	1	-360	360	342.7000	27.2104	-341.1455	-14.9291;
	10188	10183	0.00057	0.00724	0.26592	99999	831	831	0	0	1	-360	360	347.8000	-76.3087	-347.1499	55.4010;
	10189	10198	0.00028	0.00346	0.1312	99999	831	831	0	0	1	-360	360	272.8000	-60.8372	-272.6020	48.9262;
	10192	10193	0	0.0001	0	99999	762	762	0	0	1	-360	360	43.6883	4.3683	-43.6883	-4.3665;
	10192	10222	0.00488	0.0332	0.05542	99999	346	346	0	0	1	-360	360	67.9117	14.7112	-67.6898	-19.1544;
	10196	10208	0.00059	0.00752	0.26672	99999	1386	1386	0	0	1	-360	360	-123.4094	-70.0005	123.5092	42.2407;
	10197	10215	0.00092	0.01193	0.47104	99999	1109	1109	0	0	1	-360	360	39.5026	-73.1878	-39.4704	22.0157;
	10198	10208	0.00081	0.00867	0.27808	99999	831	831	0	0	1	-360	360	293.4112	-27.2866	-292.7736	3.6776;
	10199	10200	0	0.0001	0	99999	762	762	0	0	1	-360	360	-341.1455	-14.8294	341.1455	14.9291;
	10199	10211	0.00752	0.04678	0.06534	99999	323	323	0	0	1	-360	360	187.3367	6.5076	-185.0736	0.0295;
	10201	10213	0.00112	0.01179	0.35472	99999	738	738	0	0	1	-360	360	221.9465	-110.9183	-221.3331	79.6539;
	10201	10220	0.00156	0.01658	0.4112	99999	738	738	0	0	1	-360	360	-160.5637	-64.3444	160.9719	24.9074;
	10202	10193	0.01	0.06793	0.1134	99999	274	274	0	0	1	-360	360	-43.5019	-15.2572	43.6883	4.3665;
	10202	10203	0	0.0001	0	99999	762	762	0	0	1	-360	360	0.0000	0.0000	0.0000	0.0000;
	10202	10206	0.03436	0.16971	0.24563	99999	271	271	0	0	1	-360	360	54.4141	-20.6695	-53.4363	-0.5258;
	10202	10222	0.00595	0.04035	0.06732	99999	274	274	0	0	1	-360	360	-17.6719	-6.1899	17.6898	-0.8456;
	10204	10210	0.00214	0.02232	0.71616	99999	831	831	0	0	1	-360	360	130.0512	-71.2833	-129.6963	-2.9430;
	10205	10213	0.00154	0.01628	0.52272	99999	831	831	0	0	1	-360	360	-32.2103	59.1897	32.3331	-114.6539;
	10205	10215	0.00078	0.00855	0.2736	99999	1109	1109	0	0	1	-360	360	-44.0851	-16.4973	44.0989	-13.4500;
	10205	10217	0.00108	0.01152	0.352	99999	1109	1109	0	0	1	-360	360	-77.7055	-24.2280	77.7651	-13.8941;
	10206	10216	0.01105	0.05364	0.07957	99999	271	271	0	0	1	-360	360	-96.5637	-14.4742	97.5485	10.6968;
	10207	10210	0.00185	0.01772	0.57632	99999	831	831	0	0	1	-360	360	74.4024	-47.9967	-74.3037	-13.9570;
	10207	10220	0.00156	0.01757	0.552	99999	831	831	0	0	1	-360	360	-187.4024	32.9967	187.9621	-86.4267;
	10208	10214	0.00058	0.0082	0.28864	99999	831	831	0	0	1	-360	360	104.2644	-56.9182	-104.1978	26.2195;
	10212	10216	0.00504	0.0312	0.05087	99999	137	137	0	0	1	-360	360	-41.5000	-9.5000	41.5821	4.4699;
	10212	10216	0.00504	0.0312	0.05087	99999	137	137	0	0	1	-360	360	-41.5000	-9.5000	41.5821	4.4699;
	10215	10217	0.00033	0.00346	0.1112	99999	1386	1386	0	0	1	-360	360	-149.8152	-19.3024	149.8831	7.7645;
	10218	10190	0.0001	0.00123	0.04912	99999	831	831	0	0	1	-360	360	-371.3730	10.0851	371.5000	-13.8641;
	10218	10197	0.00086	0.01148	0.4	99999	1386	1386	0	0	1	-360	360	335.4002	-52.8478	-334.5026	21.2878;
	10218	10204	0.00026	0.00286	0.08848	99999	866	866	0	0	1	-360	360	159.9645	49.0389	-159.8964	-57.8913;
	10218	10219	0	6e-05	0	99999	1386	1386	0	0	1	-360	360	-123.9917	-6.2763	123.9917	6.2848;
	10219	10191	0.0001	0.00124	0.04976	99999	831	831	0	0	1	-360	360	-370.6735	10.2046	370.8000	-14.0464;
	10219	10198	0.00104	0.01237	0.37936	99999	1109	1109	0	0	1	-360	360	95.4779	-61.6152	-95.3746	21.4436;
	10219	10204	0.00026	0.00307	0.1088	99999	866	866	0	0	1	-360	360	151.2039	45.1257	-151.1430	-56.2136;
	10220	10194	9e-05	0.00101	0.03168	99999	499	499	0	0	1	-360	360	-64.7906	81.8609	64.8000	-85.1574;
	10220	10195	9e-05	0.00097	0.03072	99999	499	499	0	0	1	-360	360	0.0000	-3.3010	-0.0000	-0.0000;
	10114	10128	0.01116	0.04091	0.13068	99999	366	366	0	0	1	-360	360	8.6307	-24.8205	-8.5964	9.3247;
	10180	10064	0.01085	0.05289	0.08301	99999	269	269	0	0	1	-360	360	-8.3372	41.8396	8.5441	-50.4549;
	10181	10064	0.01085	0.05289	0.08301	99999	269	269	0	0	1	-360	360	-8.3372	41.8396	8.5441	-50.4549;
	10182	10063	0.00065	0.00924	0.276	99999	1386	1386	0	0	1	-360	360	-96.0357	39.3790	96.1076	-68.6616;
	10178	10204	0.00078	0.00875	0.13616	99999	1330	1330	0	0	1	-360	360	-10.8034	-164.8762	10.9881	152.3882;
	10114	10148	0.00864	0.03777	0.0848	99999	301	301	0	0	1	-360	360	22.5320	39.1769	-22.3531	-48.3237;
	10179	10196	0.00036	0.00429	0.1168	99999	1330	1330	0	0	1	-360	360	-231.2285	-34.4182	231.4094	23.9439;
	10039	10078	0.00101	0.01281	0.6424	99999	1386	1386	0	0	1	-360	360	4.9327	24.4045	-4.8998	-93.2168;
	10039	10038	0.00106	0.01368	0.5168	99999	1386	1386	0	0	1	-360	360	-4.9327	-24.4045	4.9330	-31.6554;
	10043	10209	0.00839	0.04277	0.06002	99999	274	274	0	0	1	-360	360	40.8472	12.7976	-40.7046	-18.8293;
	10043	10044	0.00839	0.04277	0.06026	99999	269	269	0	0	1	-360	360	-40.8472	-12.7976	40.9768	6.5659;
	10049	10217	0.00075	0.0072	0.21824	99999	1386	1386	0	0	1	-360	360	126.9245	-41.9466	-126.8085	19.0260;
	10049	10048	0.00068	0.00728	0.2176	99999	1386	1386	0	0	1	-360	360	-126.9245	41.9466	127.0421	-64.5585;
	10057	10078	0.00067	0.00819	0.47648	99999	1663	1663	0	0	1	-360	360	-210.1432	58.5457	210.4610	-105.9011;
	10057	10056	0.00075	0.0091	0.356	99999	1732	1732	0	0	1	-360	360	210.1432	-58.5457	-209.8260	23.8428;
	10114	10155	0.0045	0.01649	0.05256	99999	301	301	0	0	1	-360	360	62.2815	37.5110	-62.0722	-42.9459;
	10066	10198	0.00118	0.01209	0.3728	99999	1323	1323	0	0	1	-360	360	-204.2638	20.3142	204.7293	-56.4672;
	10066	10065	0.00118	0.01209	0.3728	99999	1386	1386	0	0	1	-360	360	204.2638	-20.3142	-203.8162	-16.0250;
	10067	10211	0.00627	0.04117	0.06002	99999	326	326	0	0	1	-360	360	-42.9683	4.7836	43.0736	-10.9295;
	10067	10064	0.00627	0.04117	0.05808	99999	318	318	0	0	1	-360	360	42.9683	-4.7836	-42.8666	-1.1567;
	10068	10214	0.00069	0.0089	0.32384	99999	831	831	0	0	1	-360	360	-87.1487	-2.7615	87.1978	-32.2195;
	10068	10065	0.00069	0.0089	0.324	99999	866	866	0	0	1	-360	360	87.1487	2.7615	-87.0984	-37.6892;
	10221	10220	0.00053	0.00544	0.06784	99999	831	831	0	0	1	-360	360	284.5425	13.8315	-284.1434	-17.0405;
	10221	10223	0.00052	0.00544	0.136	99999	1247	1247	0	0	1	-360	360	-284.5425	-13.8315	284.9328	3.2108;
...
];

%%-----  OPF Data  -----%%
%% generator cost data
%	1	startup	shutdown	n	x1	y1	...	xn	yn
%	2	startup	shutdown	n	c(n-1)	...	c0
mpc.gencost = [
	2	0	0	3	0	198.86	0;
	2	0	0	3	0	240.26	0;
	2	0	0	3	0	240.26	0;
	2	0	0	3	0	240.26	0;
	2	0	0	3	0	240.26	0;
	2	0	0	3	0	240.26	0;
	2	0	0	3	0	240.26	0;
	2	0	0	3	0	240.26	0;
	2	0	0	3	0	240.26	0;
	2	0	0	3	0	240.26	0;
	2	0	0	3	0	240.26	0;
	2	0	0	3	0	240.26	0;
	2	0	0	3	0	240.26	0;
	2	0	0	3	0	240.26	0;
	2	0	0	3	0	240.26	0;
	2	0	0	3	0	240.26	0;
	2	0	0	3	0	240.26	0;
	2	0	0	3	0	240.26	0;
	2	0	0	3	0	240.26	0;
	2	0	0	3	0	240.26	0;
	2	0	0	3	0	240.26	0;
	2	0	0	3	0	240.26	0;
	2	0	0	3	0	236.7	0;
	2	0	0	3	0	236.7	0;
	2	0	0	3	0	236.7	0;
	2	0	0	3	0	236.7	0;
	2	0	0	3	0	236.7	0;
	2	0	0	3	0	236.7	0;
	2	0	0	3	0	236.7	0;
	2	0	0	3	0	236.7	0;
	2	0	0	3	0	236.7	0;
	2	0	0	3	0	100	0;
	2	0	0	3	0	198.86	0;
	2	0	0	3	0	198.86	0;
	2	0	0	3	0	198.86	0;
	2	0	0	3	0	198.86	0;
	2	0	0	3	0	198.86	0;
	2	0	0	3	0	198.86	0;
	2	0	0	3	0	198.86	0;
	2	0	0	3	0	198.86	0;
	2	0	0	3	0	198.86	0;
	2	0	0	3	0	198.86	0;
	2	0	0	3	0	198.86	0;
	2	0	0	3	0	198.86	0;
	2	0	0	3	0	198.86	0;
	2	0	0	3	0	198.86	0;
	2	0	0	3	0	198.86	0;
	2	0	0	3	0	198.86	0;
	2	0	0	3	0	198.86	0;
	2	0	0	3	0	198.86	0;
	2	0	0	3	0	198.86	0;
	2	0	0	3	0	198.86	0;
	2	0	0	3	0	198.86	0;
	2	0	0	3	0	198.86	0;
	2	0	0	3	0	198.86	0;
	2	0	0	3	0	198.86	0;
	2	0	0	3	0	198.86	0;
	2	0	0	3	0	198.86	0;
	2	0	0	3	0	198.86	0;
	2	0	0	3	0	198.86	0;
	2	0	0	3	0	198.86	0;
	2	0	0	3	0	198.86	0;
	2	0	0	3	0	198.86	0;
	2	0	0	3	0	198.86	0;
	2	0	0	3	0	198.86	0;
	2	0	0	3	0	198.86	0;
	2	0	0	3	0	198.86	0;
	2	0	0	3	0	198.86	0;
	2	0	0	3	0	198.86	0;
	2	0	0	3	0	198.86	0;
	2	0	0	3	0	198.86	0;
	2	0	0	3	0	198.86	0;
	2	0	0	3	0	198.86	0;
	2	0	0	3	0	198.86	0;
	2	0	0	3	0	198.86	0;
	2	0	0	3	0	198.86	0;
	2	0	0	3	0	198.86	0;
	2	0	0	3	0	198.86	0;
	2	0	0	3	0	198.86	0;
	2	0	0	3	0	198.86	0;
	2	0	0	3	0	198.86	0;
	2	0	0	3	0	198.86	0;
	2	0	0	3	0	198.86	0;
	2	0	0	3	0	198.86	0;
	2	0	0	3	0	198.86	0;
	2	0	0	3	0	198.86	0;
	2	0	0	3	0	198.86	0;
	2	0	0	3	0	198.86	0;
	2	0	0	3	0	198.86	0;
	2	0	0	3	0	198.86	0;
	2	0	0	3	0	198.86	0;
	2	0	0	3	0	198.86	0;
	2	0	0	3	0	198.86	0;
	2	0	0	3	0	198.86	0;
	2	0	0	3	0	158.61	0;
	2	0	0	3	0	158.61	0;
	2	0	0	3	0	107.03	0;
	2	0	0	3	0	107.03	0;
	2	0	0	3	0	107.03	0;
	2	0	0	3	0	107.03	0;
	2	0	0	3	0	107.03	0;
	2	0	0	3	0	107.03	0;
	2	0	0	3	0	107.03	0;
	2	0	0	3	0	107.03	0;
	2	0	0	3	0	107.03	0;
	2	0	0	3	0	107.03	0;
	2	0	0	3	0	107.03	0;
	2	0	0	3	0	143.52	0;
	2	0	0	3	0	143.52	0;
	2	0	0	3	0	143.52	0;
	2	0	0	3	0	143.52	0;
	2	0	0	3	0	143.52	0;
	2	0	0	3	0	143.52	0;
	2	0	0	3	0	143.52	0;
	2	0	0	3	0	143.52	0;
	2	0	0	3	0	148.16	0;
	2	0	0	3	0	148.16	0;
	2	0	0	3	0	148.16	0;
	2	0	0	3	0	148.16	0;
	2	0	0	3	0	148.16	0;
	2	0	0	3	0	148.16	0;
	2	0	0	3	0	148.16	0;
	2	0	0	3	0	0	0;
	2	0	0	3	0	134.04	0;
	2	0	0	3	0	134.04	0;
	2	0	0	3	0	134.04	0;
	2	0	0	3	0	134.04	0;
	2	0	0	3	0	134.04	0;
	2	0	0	3	0	126.62	0;
	2	0	0	3	0	126.62	0;
	2	0	0	3	0	0	0;
	2	0	0	3	0	0	0;
	2	0	0	3	0	130.49	0;
	2	0	0	3	0	130.49	0;
	2	0	0	3	0	132.33	0;
	2	0	0	3	0	132.33	0;
	2	0	0	3	0	136.59	0;
	2	0	0	3	0	136.59	0;
	2	0	0	3	0	139.96	0;
	2	0	0	3	0	128.21	0;
	2	0	0	3	0	128.21	0;
	2	0	0	3	0	128.21	0;
	2	0	0	3	0	128.21	0;
	2	0	0	3	0	128.21	0;
	2	0	0	3	0	137.4	0;
	2	0	0	3	0	137.4	0;
	2	0	0	3	0	137.4	0;
	2	0	0	3	0	137.4	0;
	2	0	0	3	0	129.99	0;
	2	0	0	3	0	129.99	0;
	2	0	0	3	0	129.99	0;
	2	0	0	3	0	135.6	0;
	2	0	0	3	0	135.6	0;
	2	0	0	3	0	135.6	0;
	2	0	0	3	0	163.16	0;
	2	0	0	3	0	163.16	0;
	2	0	0	3	0	163.16	0;
	2	0	0	3	0	163.16	0;
	2	0	0	3	0	163.16	0;
	2	0	0	3	0	163.16	0;
	2	0	0	3	0	163.16	0;
	2	0	0	3	0	139.01	0;
	2	0	0	3	0	139.01	0;
	2	0	0	3	0	139.01	0;
	2	0	0	3	0	139.01	0;
	2	0	0	3	0	139.01	0;
	2	0	0	3	0	139.01	0;
	2	0	0	3	0	139.01	0;
	2	0	0	3	0	139.01	0;
	2	0	0	3	0	125.48	0;
	2	0	0	3	0	125.48	0;
	2	0	0	3	0	125.48	0;
	2	0	0	3	0	125.48	0;
	2	0	0	3	0	125.48	0;
	2	0	0	3	0	137.4	0;
	2	0	0	3	0	137.4	0;
	2	0	0	3	0	137.4	0;
	2	0	0	3	0	137.4	0;
	2	0	0	3	0	137.4	0;
	2	0	0	3	0	0	0;
	2	0	0	3	0	0	0;
	2	0	0	3	0	0	0;
	2	0	0	3	0	0	0;
	2	0	0	3	0	0	0;
	2	0	0	3	0	0	0;
	2	0	0	3	0	0	0;
	2	0	0	3	0	0	0;
	2	0	0	3	0	0	0;
	2	0	0	3	0	0	0;
	2	0	0	3	0	0	0;
	2	0	0	3	0	0	0;
	2	0	0	3	0	0	0;
	2	0	0	3	0	107.03	0;
	2	0	0	3	0	0	0;
	2	0	0	3	0	0	0;
	2	0	0	3	0	0	0;
	2	0	0	3	0	0	0;
	2	0	0	3	0	0	0;
	2	0	0	3	0	0	0;
	2	0	0	3	0	0	0;
...
];
